<?xml version="1.0" encoding="UTF-8"?>

<!-- generated on Fri Oct 30 15:50:37 2020 by Eclipse SUMO polyconvert Version 1.7.0
<configuration xmlns:xsi="http://www.w3.org/2001/XMLSchema-instance" xsi:noNamespaceSchemaLocation="http://sumo.dlr.de/xsd/polyconvertConfiguration.xsd">

    <input>
        <net-file value="map.net.xml"/>
        <osm-files value="map.osm"/>
        <type-file value="typemap.xml"/>
    </input>

    <output>
        <output-file value="map.poly.xml"/>
    </output>

    <processing>
        <poi-layer-offset value="5"/>
    </processing>

</configuration>
-->

<additional xmlns:xsi="http://www.w3.org/2001/XMLSchema-instance" xsi:noNamespaceSchemaLocation="http://sumo.dlr.de/xsd/additional_file.xsd">
    <location netOffset="-476861.34,-1433329.17" convBoundary="-1717.94,-55848.23,96212.29,24109.27" origBoundary="74.770712,12.460100,75.672805,13.183349" projParameter="+proj=utm +zone=43 +ellps=WGS84 +datum=WGS84 +units=m +no_defs"/>

    <poly id="157043580" type="amenity" color="237,199,199" fill="1" layer="2.00" shape="689.223836,4826.606521 691.583292,4687.740465 713.777150,4576.604587 831.838262,4339.344052 845.707721,4312.460212 1006.481656,4367.358950 1099.745295,4387.632350 1189.651347,4385.890865 1204.639414,4388.013282 1220.203333,4500.821753 1239.637854,4503.582063 1266.856454,4654.544892 1295.964271,4671.861883 1326.321074,4815.180736 1355.414193,4827.875264 1384.146067,4822.533368 1495.807294,4784.293073 1510.120766,4783.817387 1517.278091,5019.638538 1487.617317,5084.698011 1384.071248,5044.017074 1312.559835,5061.424644 1307.940932,5116.909805 1338.211257,5137.698351 1339.054124,5175.153509 1404.215590,5191.280988 1467.431219,5242.786934 1465.223342,5400.010244 1362.851896,5403.552230 1360.573457,5470.602952 1360.639169,5553.841772 1293.175399,5559.667759 1292.477440,5787.400254 1197.061835,5768.399723 987.620722,5714.246754 865.670633,5668.340729 832.233329,5646.449387 624.026725,5605.623905 654.687162,5519.672723 682.800411,5394.808061 691.416398,5255.793095 689.223836,4826.606521"/>
    <poly id="176064253" type="unknown" color="51,128,255" fill="0" layer="-1.00" shape="786.153973,4434.939224 826.880501,4444.151354 831.089071,4445.530290 841.664729,4448.994179 855.105802,4455.695957 862.559181,4460.135540 879.201811,4470.063887 884.659193,4473.631447 887.349907,4475.387612 899.631706,4483.395273 914.603176,4491.876298 933.545311,4502.587994 945.023416,4509.081280 970.866604,4525.195159 1004.966698,4547.185668 1017.399668,4554.474444 1031.720358,4562.867584 1051.367889,4574.375022 1066.372041,4583.165745 1068.986649,4584.700814 1093.375685,4599.654805 1106.702882,4613.301659 1111.716851,4618.428894 1118.474476,4634.381206 1124.007141,4650.843197 1124.897250,4665.583734 1124.136085,4676.554571 1122.881651,4694.481724 1119.637441,4705.697834 1117.527796,4711.848154 1114.758212,4719.923215 1106.918348,4733.808141 1104.840348,4738.841508 1093.562906,4766.187621 1090.087351,4786.416761 1089.519025,4794.423714 1089.170668,4806.301037 1082.562846,4828.512189 1086.281045,4854.121170 1087.960346,4865.830993 1088.965380,4902.246495 1088.127909,4953.404720 1087.380945,5036.400879 1085.057414,5114.090126 1085.118858,5190.970185 975.534751,5193.424550 874.603387,5195.242021 819.778320,5195.861365 702.711370,5197.404995 678.355813,5196.562231"/>
    <poly id="176065872" type="unknown" color="51,128,255" fill="0" layer="-1.00" shape="661.443920,4868.917615 648.637579,4869.138163"/>
    <poly id="176065874" type="unknown" color="51,128,255" fill="0" layer="-1.00" shape="300.140898,5499.450059 313.098699,5407.419800"/>
    <poly id="176065876" type="unknown" color="51,128,255" fill="0" layer="-1.00" shape="678.355813,5196.562231 671.448394,5196.556795 666.069940,5196.561175 647.158366,5196.289058 617.205826,5193.427166 590.732675,5188.826247 561.942039,5187.976150 562.186260,5208.147033 560.752132,5231.271964 560.809942,5235.662224 560.175090,5241.678680 555.875885,5248.671302 550.064881,5250.124750 545.693238,5248.104585 543.076136,5243.484188 542.203202,5236.838620 542.196101,5228.168599 541.599658,5214.876520 542.175272,5202.733588 544.196642,5194.924485 548.269838,5190.011084 550.306319,5187.410621 555.249843,5185.957883 561.942039,5187.976150"/>
    <poly id="176065877" type="unknown" color="51,128,255" fill="0" layer="-1.00" shape="647.158366,5196.289058 646.586248,5199.474432 645.722985,5217.965293 644.303627,5259.292839 643.151842,5269.700022 640.825647,5276.060676 635.021238,5285.598015 626.890652,5301.507070 618.172859,5315.381804 614.980124,5322.893273 613.758525,5327.461516 612.316100,5340.467735 610.584438,5357.809203 606.598319,5389.661539 599.318065,5450.877440 598.215609,5455.268648 558.371421,5449.241059 482.737521,5436.010498 419.912179,5425.655917 313.098699,5407.419800 258.168166,5398.043280 225.696210,5390.517129 180.956375,5378.478210"/>
    <poly id="176068093" type="unknown" color="51,128,255" fill="0" layer="-1.00" shape="914.603176,4491.876298 918.826640,4484.828507 923.763804,4475.291934 927.476487,4466.851159 931.014130,4456.497371 932.470858,4447.538652 934.198917,4438.867242 934.193571,4432.220968 948.741512,4426.425572 959.202912,4422.657208 968.503549,4418.314728 977.260339,4411.915769"/>
    <poly id="176068094" type="unknown" color="51,128,255" fill="0" layer="-1.00" shape="1089.519025,4794.423714 1151.127354,4800.180384 1224.425490,4806.193317 1231.690841,4806.187549 1241.632200,4789.469965 1243.079087,4781.672433 1243.441987,4774.373404 1247.134055,4767.215496 1250.570810,4766.283840 1253.823089,4765.186450 1257.023393,4766.920128 1261.104107,4771.251904 1261.629607,4777.554946 1257.913201,4781.373143 1252.092816,4784.839131 1246.856630,4786.579500 1241.632200,4789.469965"/>
    <poly id="176068095" type="unknown" color="51,128,255" fill="0" layer="-1.00" shape="933.545311,4502.587994 927.858414,4510.256248 918.271776,4522.981468 905.225715,4535.433009 904.033801,4536.573015 895.893745,4541.202109 892.968704,4544.699016 891.538689,4546.414267 888.365871,4551.935115 881.078146,4564.625320 879.842770,4565.654775 873.806783,4570.702410 858.104812,4570.715079 843.273389,4574.487012 828.148712,4577.673078 823.498780,4580.275631 823.510696,4595.016870 826.145895,4608.594825 831.656943,4665.177746 834.645859,4700.496825 833.864611,4726.728697 832.956617,4757.140862 832.926542,4800.435706 832.947294,4826.113997"/>
    <poly id="176068096" type="unknown" color="51,128,255" fill="0" layer="-1.00" shape="1104.840348,4738.841508 1110.415130,4740.153044 1121.706517,4743.848699 1130.425188,4744.129272 1144.153066,4743.598571 1152.881198,4742.142928 1165.089285,4739.534412 1178.172963,4733.452773 1193.003657,4728.818441 1198.237785,4724.479269 1208.118414,4713.202602 1214.217763,4705.976426 1218.806553,4694.637615 1221.184675,4685.158421 1221.760146,4672.440460 1219.704060,4650.479516 1217.353351,4626.207539 1212.389262,4601.937637 1205.686405,4586.615606 1195.799582,4576.515812 1178.918198,4566.123001 1166.399045,4559.486684 1145.155392,4545.337408 1132.642921,4533.503513 1124.780400,4519.056063 1114.587812,4506.346689 1103.232381,4490.464401 1094.496551,4482.376407 1082.571909,4473.428386 1072.678541,4468.813756 1064.236172,4461.588116 1058.702532,4457.556116 1054.633735,4454.661992 1043.578433,4448.024559 1024.365232,4437.346181 998.176575,4423.212037 989.455476,4420.034127 977.260339,4411.915769 969.079612,4406.470399 949.879285,4398.390856 937.076891,4390.306180 924.266440,4385.693949"/>
    <poly id="176068326" type="unknown" color="51,128,255" fill="0" layer="-1.00" shape="888.365871,4551.935115 872.048451,4541.807444 863.314897,4536.605841 855.462500,4534.875963 850.228388,4539.215199 845.878002,4550.200001 840.647396,4558.874247 833.964417,4568.423305 828.142411,4569.876699 824.942521,4568.718122 818.834837,4565.549212 815.048204,4562.942421 814.177418,4558.895640 814.173912,4554.560633 816.208132,4549.073872 820.268287,4541.263146 824.631144,4532.302072 824.040432,4525.943797 824.331118,4523.344767 824.903039,4519.871873 810.942706,4514.685571 803.662460,4509.781397 800.166975,4505.161688 797.843564,4501.691136 795.897220,4495.168078 798.408287,4489.327052 800.746855,4484.724740 805.242115,4478.572466 813.290616,4481.408042 818.130499,4485.717022 828.892590,4491.779549 836.518261,4494.726061 842.047497,4493.272905 847.563559,4488.933440 850.767998,4482.284574 855.120262,4473.611040 860.057871,4464.649508 862.559181,4460.135540"/>
    <poly id="176068327" type="unknown" color="51,128,255" fill="0" layer="-1.00" shape="892.968704,4544.699016 904.336598,4549.002750 921.205395,4557.084138 930.520071,4556.778058 937.781078,4551.287102 943.822404,4539.372024 948.532822,4531.052095 952.303253,4527.001581 959.287430,4527.858547 966.630495,4530.009095 972.133654,4536.595661 979.860966,4544.618073 970.903938,4558.183230 963.561061,4569.756528 958.168004,4578.729466 963.798119,4581.379031 973.205266,4588.205753 985.238219,4597.009877"/>
    <poly id="176068328" type="unknown" color="51,128,255" fill="0" layer="-1.00" shape="905.225715,4535.433009 904.324957,4534.549039 900.246014,4532.528582 890.057988,4525.602986 879.295460,4518.965383 872.890784,4510.588053 872.884023,4502.205564 876.369945,4494.981422 880.721752,4485.732839 885.367971,4478.496704 887.349907,4475.387612"/>
    <poly id="176068428" type="unknown" color="51,128,255" fill="0" layer="-1.00" shape="1017.399668,4554.474444 1013.999946,4561.046036 1005.283352,4576.955434 998.021003,4594.301299 993.677754,4614.243619 985.502461,4642.516217 978.247103,4668.532105 967.264704,4685.073681 960.298608,4693.174247 951.330555,4706.440837 942.412293,4714.189098 930.351222,4710.825895 923.075232,4711.119276 919.856265,4713.178786 916.159956,4714.973271 911.868331,4718.128456 897.364355,4724.454658 883.282948,4730.349238 866.671952,4732.552259 850.676351,4731.404007 833.864611,4726.728697"/>
    <poly id="176068431" type="unknown" color="51,128,255" fill="0" layer="-1.00" shape="1124.136085,4676.554571 1119.959823,4674.832745 1110.360703,4671.954083 1093.191638,4667.920306 1080.392875,4664.170572 1069.342057,4663.029301 1066.142419,4662.158222 1062.362075,4667.369893 1061.115650,4668.144999"/>
    <poly id="176068628" type="unknown" color="51,128,255" fill="0" layer="-1.00" shape="858.104812,4570.715079 849.971077,4583.151624 844.446753,4590.664943 840.094511,4599.338480 838.598609,4613.450591 840.061954,4626.155857 842.550437,4632.634246 844.202163,4636.912629 855.438285,4639.214825 867.283491,4643.783568 876.525620,4647.679834 883.705084,4648.691445 889.157617,4646.287312 892.690180,4643.132735 895.971757,4638.020971 898.005282,4631.660579 898.574885,4625.301367 897.702955,4619.816954 899.442299,4611.720584 902.928908,4605.359022 906.988152,4596.398205 908.144254,4591.188626 907.272788,4586.279265 904.655686,4581.658836 898.254757,4577.904034 891.268496,4574.448290 883.695254,4569.245746 879.842770,4565.654775"/>
    <poly id="176068812" type="unknown" color="51,128,255" fill="0" layer="-1.00" shape="866.671952,4732.552259 862.015741,4727.347368 857.066058,4721.291194 853.570135,4716.085368 853.857553,4709.438856 856.173940,4704.239396 858.500932,4698.741343 861.987288,4692.092249 865.473647,4685.443156 865.751625,4680.532869 858.189956,4676.203960 851.204411,4673.610805 846.840740,4668.118154 842.478469,4664.361718 841.017923,4655.117824 840.133263,4647.311095 840.126965,4639.514716 842.550437,4632.634246"/>
    <poly id="176068903" type="unknown" color="51,128,255" fill="0" layer="-1.00" shape="897.702955,4619.816954 903.811081,4623.560933 913.649696,4627.545201 921.264236,4630.193159 928.858110,4634.112887 933.764257,4626.489495 938.400395,4620.215483 942.613037,4613.211938 945.364601,4609.748353 945.341099,4607.492397 946.629486,4604.958918 952.087046,4608.791900 959.301661,4613.054761 965.116311,4615.947469 968.317344,4618.543693"/>
    <poly id="176068904" type="unknown" color="51,128,255" fill="0" layer="-1.00" shape="970.866604,4525.195159 971.786064,4522.363393 973.817991,4513.979267 975.556902,4505.307851 976.136438,4497.787470 975.254137,4492.878116 970.599302,4489.409422 964.495562,4491.150539 957.809964,4497.514662 950.256392,4503.304432 945.023416,4509.081280"/>
    <poly id="176068915" type="unknown" color="51,128,255" fill="0" layer="-1.00" shape="831.089071,4445.530290 835.022674,4442.121033 846.944023,4433.441384 856.536729,4428.236051 861.772264,4425.633032 869.329800,4424.753297 878.356406,4430.242191 881.845001,4439.771978 885.585528,4452.431173 886.462590,4464.274334 884.659193,4473.631447"/>
    <poly id="176069079" type="unknown" color="51,128,255" fill="0" layer="-1.00" shape="1124.136085,4676.554571 1130.147736,4681.758425 1139.977991,4688.927685 1147.314005,4695.910938 1148.131391,4701.052582 1143.255624,4706.032882 1135.689377,4709.500285 1127.546116,4710.092889 1119.695171,4710.099151 1117.527796,4711.848154"/>
    <poly id="176069212" type="unknown" color="51,128,255" fill="0" layer="-1.00" shape="1082.562846,4828.512189 1088.093731,4829.193409 1099.956107,4828.255004 1113.337585,4828.531848 1129.038720,4827.656744 1141.899969,4828.276837 1152.602068,4827.350437 1157.829009,4827.633800"/>
    <poly id="176069290" type="unknown" color="51,128,255" fill="0" layer="-1.00" shape="1106.702882,4613.301659 1119.560448,4609.177564 1130.317344,4608.870401 1135.851420,4613.499584 1136.496780,4620.488168 1131.556810,4626.563332 1124.577726,4632.054012 1118.474476,4634.381206"/>
    <poly id="176069361" type="unknown" color="51,128,255" fill="0" layer="-1.00" shape="929.518909,4768.044287 923.066095,4767.131607 914.695873,4768.642329 913.821940,4774.128149 912.672354,4787.421634 912.393303,4804.474378 911.478770,4826.868986 911.830545,4832.796167 912.143579,4857.943405 912.465920,4894.646980 904.620844,4901.874632 890.078882,4901.311298 869.713581,4900.465144 837.432133,4901.066263 802.926754,4900.485938 789.958550,4901.668659 789.688281,4916.078369 790.566546,4929.370220 807.494634,4930.561916 819.077596,4932.808521 819.387442,4953.908278 819.425116,4960.267002 819.717151,4999.569400 819.777264,5006.857038 819.789365,5021.819455 819.847385,5093.557226 818.953352,5141.187792 819.778320,5195.861365"/>
    <poly id="176069414" type="unknown" color="51,128,255" fill="0" layer="-1.00" shape="681.180070,5029.374414 714.210394,5029.767785 744.985068,5029.975027 781.344537,5030.520599 788.359718,5029.641279 811.064192,5026.802930 819.789365,5021.819455"/>
    <poly id="176069415" type="unknown" color="51,128,255" fill="0" layer="-1.00" shape="681.009926,4993.522230 715.058678,4992.775727 746.473219,4993.037746 777.595220,4993.598622 787.409098,4993.955609 790.076738,4994.052977 800.855735,4994.442363 809.554326,4996.801887 819.717151,4999.569400"/>
    <poly id="176069514" type="unknown" color="51,128,255" fill="0" layer="-1.00" shape="787.409098,4993.955609 788.637492,4984.333541 790.566546,4929.370220"/>
    <poly id="176069650" type="unknown" color="51,128,255" fill="0" layer="-1.00" shape="819.077596,4932.808521 823.784772,4934.021172 830.995363,4933.384997 833.037726,4938.005884 832.526610,4949.617936 826.708191,4955.406342 820.897111,4956.859731 819.425116,4960.267002"/>
    <poly id="176069651" type="unknown" color="51,128,255" fill="0" layer="-1.00" shape="788.359718,5029.641279 788.964217,5026.245767 789.821416,5013.527562 790.105769,5003.121091 790.076738,4994.052977"/>
    <poly id="176069687" type="unknown" color="51,128,255" fill="0" layer="-1.00" shape="912.465920,4894.646980 911.594557,4903.317705 912.781510,4922.968064 912.205957,4935.398510 910.174313,4944.070169 891.865726,4952.168834 876.159659,4960.276470"/>
    <poly id="176069858" type="unknown" color="51,128,255" fill="0" layer="-1.00" shape="851.048557,5017.746706 854.681259,5017.810124 887.201855,5018.104586 890.173196,5018.301247"/>
    <poly id="176071087" type="unknown" color="51,128,255" fill="0" layer="-1.00" shape="1204.309680,5037.468856 1207.506740,5035.155046 1239.788261,5034.841884 1259.276254,5037.137695 1277.833245,5041.402706 1294.414423,5042.827207 1308.662154,5041.665827 1325.878136,5036.797444 1338.095118,5031.866668 1350.298928,5023.983235 1367.751335,5016.383192 1377.921118,5014.307194 1387.173335,5017.495864 1394.452070,5020.785621 1397.996391,5018.781204 1401.773804,5009.831739 1408.743063,5005.690296 1455.005051,5022.817011 1465.189121,5025.120279 1472.400837,5025.932960 1482.930584,5026.555041 1491.371761,5032.619645 1495.738411,5042.148819 1499.823808,5052.551852 1500.403059,5058.335099 1495.183869,5067.871791"/>
    <poly id="176071088" type="unknown" color="51,128,255" fill="0" layer="-1.00" shape="1087.380945,5036.400879 1094.657080,5036.395066 1139.733729,5035.496516 1199.070556,5035.449278 1204.309680,5037.468856 1204.043543,5070.987994"/>
    <poly id="176071089" type="unknown" color="51,128,255" fill="0" layer="-1.00" shape="1231.690841,4806.187549 1287.836326,4815.100590 1298.313042,4817.116040 1307.379879,4818.900376 1316.401923,4818.893241 1321.920963,4818.313826 1326.289189,4815.999105 1330.645882,4812.810757"/>
    <poly id="192093163" type="amenity" color="237,199,199" fill="1" layer="2.00" shape="391.288982,4233.020205 390.413551,4276.072451 442.172946,4277.102550 442.673243,4252.507587 443.048457,4234.050307 391.288982,4233.020205"/>
    <poly id="192093165" type="unknown" color="51,128,255" fill="0" layer="-1.00" shape="468.689033,4253.658437 475.968953,4258.009590"/>
    <poly id="192093166" type="unknown" color="51,128,255" fill="0" layer="-1.00" shape="381.190699,4308.957571 366.082854,4332.668826 338.196789,4377.778170 325.117387,4389.024616 315.816125,4392.504736 308.247030,4392.510994 281.769666,4396.912148"/>
    <poly id="192093167" type="unknown" color="51,128,255" fill="0" layer="-1.00" shape="442.673243,4252.507587 468.689033,4253.658437"/>
    <poly id="192093169" type="natural" color="140,196,107" fill="1" layer="2.00" shape="450.069011,3909.504882 420.460707,3984.086968 389.723210,4096.258544 383.918978,4119.376010 382.764621,4126.609351 388.589667,4141.920852 385.694645,4155.503321 379.308794,4170.249832 358.385595,4190.493449 332.841842,4248.893419 311.349415,4288.799917 293.925464,4331.014336 288.135082,4357.604249 281.769666,4396.912148 281.791199,4422.922200 270.856379,4548.889893 261.563229,4588.255522 249.436390,4688.833440 244.249630,4750.114031 242.514799,4763.408035 233.212233,4765.151970 204.698042,4758.241839 242.982899,4621.789862 252.216513,4536.818176 267.216408,4383.056587 268.937391,4352.997606 271.247948,4340.853237 296.796592,4275.519392 336.857287,4187.049844 373.432996,4093.374589 422.751407,3947.679847 483.116258,3783.463894 507.482918,3703.677540 542.780389,3464.338480 553.158227,3357.967477 580.378450,3199.562644 592.436967,3012.848919 650.977619,2748.631258 701.594151,2754.373819 707.999278,2762.751106 714.408150,2775.750923 689.502832,2901.784894 673.264581,2963.649338 660.516444,3009.851851 655.865543,3038.232233 650.082054,3074.078154 640.819830,3126.105775 625.744066,3190.280580 627.528635,3237.676679 616.524811,3294.914378 609.603232,3371.225002 598.043102,3437.664002 585.277497,3501.881197 562.662023,3588.599836 540.067437,3687.416697 529.620357,3735.453164 509.291346,3779.970006 496.532612,3825.652882 450.069011,3909.504882"/>
    <poly id="219225822" type="unknown" color="51,128,255" fill="0" layer="-1.00" shape="876.159659,4960.276470 857.842123,4970.697493 852.034779,4976.773411 851.404518,4988.562498 851.048557,5017.746706 850.855602,5033.936805 850.064777,5061.739026 852.417148,5060.852430 867.706806,5060.873263 880.914570,5061.017428 886.369473,5061.654434 887.874930,5059.397244 889.324724,5055.348590 890.185589,5033.672835 890.173196,5018.301247 890.166019,5009.398996 890.724663,4989.459703 890.710452,4971.832140 891.865726,4952.168834"/>
    <poly id="219225823" type="unknown" color="51,128,255" fill="0" layer="-1.00" shape="2076.693210,4718.707984 2090.489371,4722.368946 2107.451532,4725.507745 2194.335041,4743.301472 2207.510333,4743.346771 2221.472364,4736.977438 2227.865842,4731.188897 2236.009559,4731.182729 2242.992551,4730.602390 2306.988980,4739.799084 2362.829942,4747.851959 2390.961823,4751.822987 2426.251132,4756.474310 2483.832250,4757.006213 2547.819907,4754.647137 2562.949197,4757.533232 2571.879643,4765.555186 2579.459821,4780.578301 2612.467076,4851.705358 2629.545453,4865.504968 2650.871657,4875.375600 2740.683259,4909.358787 2787.028907,4923.247465 2883.030721,4955.545627 2954.800619,4978.561473 3034.314995,5004.568767 3135.179609,5044.317815 3179.192597,5057.058733 3194.528927,5061.670178 3214.301530,5052.930588 3251.309465,5035.619160 3345.721565,4999.665837 3379.825599,4985.242985 3410.072154,4974.815120 3430.422952,4970.764158 3457.772072,4972.469796 3504.302935,4973.022762 3531.650821,4973.003319 3566.746194,4964.828155 3587.478627,4963.707590 3671.234644,4946.894471 3732.316206,4945.115238 3756.165239,4950.296060 3795.145739,4961.836097 3842.285127,4979.718167 3897.190565,5016.029732 3940.834515,5044.320630 4036.666569,5115.991823 4087.879021,5159.881519 4101.266467,5169.117341 4114.063171,5170.844729 4126.865939,5165.638323 4156.137895,5141.278003 4188.418588,5108.389402 4235.566532,5060.362373 4279.164637,5022.191141 4312.876341,4972.459340 4336.316133,4934.235610 4377.944107,4852.760085 4408.333106,4811.800205 4413.977558,4804.188002 4429.877522,4792.554546 4444.796278,4789.138364 4449.434571,4768.908895 4461.020690,4696.068581 4466.226185,4648.645438"/>
    <poly id="219225826" type="unknown" color="51,128,255" fill="0" layer="-1.00" shape="2034.460458,4709.782699 2076.693210,4718.707984"/>
    <poly id="219225827" type="unknown" color="51,128,255" fill="0" layer="-1.00" shape="834.017847,4299.000157 884.479323,4317.748168 945.199770,4337.262131 1020.517711,4358.732977 1056.017936,4368.535742 1095.777921,4375.957532 1142.114282,4375.975870 1169.451949,4375.954103 1199.121536,4376.516622 1212.129841,4384.534902 1220.285140,4398.982143 1220.108060,4435.453867 1224.213836,4471.291846 1224.224388,4484.584393 1230.834715,4492.607761 1245.175023,4498.435377 1250.633451,4530.744564 1255.885719,4549.230543 1256.286838,4576.456740 1265.631666,4627.894399 1270.506168,4648.647714 1278.461178,4656.791674 1289.136988,4663.661732 1300.192370,4670.586787 1302.534771,4684.452543 1306.416593,4697.808380 1313.648185,4764.785202 1324.530314,4799.523033 1337.336047,4812.219360 1348.977386,4819.730083 1362.348710,4820.880693 1380.963864,4816.232418 1459.472900,4788.435423 1487.974937,4780.318084 1518.801187,4776.821489 1529.847419,4772.190303 1549.617506,4760.618493 1589.742374,4750.180904 1614.960565,4744.322235 1638.593852,4736.264143 1654.876348,4729.903773 1682.799225,4729.882054 1699.678065,4737.377794 1721.793573,4743.719376 1739.814671,4741.969183 1823.179574,4710.630687 1849.155670,4703.157079 1884.630055,4694.459724 1907.896955,4689.244231 1925.343375,4687.494603 1955.013924,4689.783084 2007.952929,4703.035058 2034.460458,4709.782699"/>
    <poly id="219811093" type="unknown" color="51,128,255" fill="0" layer="-1.00" shape="-0.004351,6228.237346 12.485199,6187.199021 16.250119,6164.083142 24.929843,6118.414417 31.884590,6084.591029 43.762676,6038.355639 52.471718,6014.649515 54.039984,6009.848719"/>
    <poly id="221202411" type="unknown" color="51,128,255" fill="0" layer="-1.00" shape="2080.895634,6516.130771 2089.041916,6520.172036 2109.410602,6527.090300 2116.968261,6527.084536 2125.432233,6521.161674 2131.817342,6504.966859 2139.360922,6486.470953 2147.501478,6482.992319 2162.052976,6482.981243 2188.803456,6483.547012 2197.203490,6479.061853 2207.076636,6458.241869 2223.917447,6417.190227 2239.325593,6374.270762 2252.947596,6349.544231 2276.194358,6319.480127 2294.529150,6303.707605 2302.670222,6300.815129 2396.011762,6304.935996 2488.817836,6303.561403 2599.915664,6301.167149 2609.457172,6300.463345 2615.615779,6300.005353 2621.425157,6296.528596 2632.477932,6286.700245 2663.840399,6233.495636 2692.301843,6172.209307 2696.942035,6156.602038 2696.932181,6143.309486 2686.437982,6102.278427 2678.851355,6078.010206 2669.500612,6014.440673 2653.770603,5990.178506 2635.404878,5964.900906 2617.093985,5940.496915 2609.783179,5922.731024 2606.274838,5900.196005 2618.203044,5871.710975 2620.779671,5851.626459 2619.313838,5805.247363 2619.573849,5790.362161 2624.792207,5779.376991 2648.054450,5768.953463 2730.368920,5727.709841 2792.572120,5690.672543 2818.159463,5671.588487 2830.045480,5659.005995 2870.708327,5584.993407 2884.392518,5569.810825 2896.022074,5562.282375 2991.090405,5551.961366 3028.899175,5548.461348 3041.690726,5543.254440 3046.920142,5532.269346 3039.874592,5446.724418 3027.342473,5361.625843 3021.181107,5328.852367 3001.377082,5294.186752 2983.058463,5259.354186 2977.795655,5224.677970 2981.841328,5196.353702 2990.242616,5178.023313 2999.532127,5158.365235 3034.143910,5126.955428 3047.780740,5120.752628 3061.747392,5120.742463 3084.177029,5127.494072 3105.121192,5134.412658 3117.913784,5130.355893 3127.799025,5124.576085 3156.287779,5097.959289 3178.491079,5076.644182 3194.528927,5061.670178"/>
    <poly id="224698595" type="amenity" color="237,199,199" fill="1" layer="2.00" shape="492.103185,6237.682079 514.107822,6123.217369 815.428754,6132.216869 813.173260,6225.852822 962.124096,6208.624790 963.600146,6372.104561 965.910794,6386.888204 837.471570,6398.349101 815.349378,6395.779266 803.964331,6342.618185 731.553590,6356.257043 732.135164,6338.042866 712.052848,6337.207674 667.292296,6350.813164 646.319418,6334.938891 656.220651,6270.137802 553.775892,6259.594102 494.444521,6263.104144 492.103185,6237.682079"/>
    <poly id="231695938" type="unknown" color="51,128,255" fill="0" layer="-1.00" shape="1848.968519,8363.943991 1909.135431,8212.348791 1926.247232,8173.220902 1945.988931,8113.665544 1958.742649,8075.182441 1961.336399,8064.188077 1981.005766,7980.845500 1991.184325,7906.854847 1993.929171,7838.421386 1993.859602,7747.806300 1986.044308,7270.650810 1984.295717,7012.663425 1982.901306,6806.430581 1993.082492,6735.226789 1995.750876,6722.385580 2015.704565,6626.557620 2018.113710,6614.988364 2067.347743,6495.649337 2113.598169,6387.692099 2177.903411,6237.565435 2200.202560,6187.607380 2229.004581,6119.154261 2242.929756,6079.376605 2249.221574,6054.312816 2255.924186,6027.578853 2257.870014,6019.692525 2269.836853,5971.157878 2283.705172,5841.672101 2293.703727,5527.243573 2297.328039,5401.470255 2301.910082,5308.982904 2282.844911,5191.432300 2269.867941,5109.220703 2268.258199,5102.774701 2242.119252,5009.392737 2227.070538,4969.603892 2214.140572,4935.431265 2170.336452,4855.930377 2127.376946,4803.666480 2072.200563,4728.597885 2037.212387,4678.263316 1999.868356,4624.524518 1967.164044,4569.057056 1942.982473,4512.996976 1922.973410,4468.036640 1915.011032,4450.127677 1887.953543,4363.216105 1873.941621,4304.958642 1869.253213,4257.796931 1862.693198,4202.309470 1862.644749,4139.429788 1862.599855,4081.161580 1882.017916,3907.270845 1921.125378,3657.601951 1947.758591,3487.576323 1955.183142,3440.173104 1988.518291,3184.680905 2010.706198,3014.691986 2052.577584,2745.558081 2058.553342,2703.386780 2085.725020,2511.730241 2099.895070,2435.237645 2149.685300,2166.462935 2167.248763,2016.615642 2178.522679,1953.063962 2185.790272,1912.086075 2211.784878,1825.123119 2239.663164,1762.211380 2241.168388,1759.257578 2267.547854,1707.615789 2287.308186,1679.766215 2323.340541,1628.957670 2372.631618,1571.570370 2414.483413,1528.996291 2487.986663,1478.989329 2586.614219,1423.423502 2653.610400,1387.300452 2710.713969,1363.161402 2721.544904,1358.586180 2849.949445,1296.518977 2945.145739,1248.222513 2946.728557,1247.425134 3013.706037,1199.282221 3050.120593,1164.321451 3066.734768,1148.373865 3079.976068,1132.395558 3110.446277,1095.614501 3131.799159,1063.628470 3161.702525,1022.645593 3188.487426,973.404181 3230.004554,884.739139 3244.525869,853.731280 3249.712209,841.784203 3326.944725,663.750799 3412.524694,464.058854 3447.811427,396.675478 3474.805287,349.922428 3501.945102,310.036727 3529.099725,275.636135 3554.382079,246.821514 3578.973281,222.132283 3647.465813,164.158779 3710.914043,119.702658 3795.961117,66.793844 3811.203491,57.305941 3907.451482,-0.000619"/>
    <poly id="239320945" type="unknown" color="51,128,255" fill="0" layer="-1.00" shape="97.467569,5918.965045 101.555782,5932.254206 110.984897,5939.699906"/>
    <poly id="239320947" type="unknown" color="51,128,255" fill="0" layer="-1.00" shape="151.474130,5809.681987 112.010468,5921.264170 108.062240,5932.768531 110.984897,5939.699906 124.823980,5943.216084 269.686939,5963.908079 374.975120,5975.952379 438.502101,5983.939699 462.450346,5991.373570"/>
    <poly id="239320948" type="unknown" color="51,128,255" fill="0" layer="-1.00" shape="133.521455,5580.505105 138.783693,5584.260680 157.102230,5588.867954 187.358503,5592.315200 259.789704,5601.212588 270.545494,5600.042504 300.499150,5591.635185 398.775158,5553.700026 414.766251,5549.926887 424.365390,5553.103890 439.779017,5559.151376 540.742675,5598.382199 589.618604,5616.832367 592.753494,5618.201084 598.958104,5620.805869"/>
    <poly id="239320951" type="tourism" color="207,245,201" fill="1" layer="2.00" shape="342.661900,5582.355227 300.329206,5595.926106 324.864317,5722.494886 326.321163,5727.116223 374.487090,5726.247026 357.845163,5650.840346 342.661900,5582.355227"/>
    <poly id="239320952" type="unknown" color="51,128,255" fill="0" layer="-1.00" shape="259.789704,5601.212588 257.372553,5706.935889"/>