<?xml version="1.0" encoding="UTF-8"?>

<!-- generated on Fri Oct 30 15:46:43 2020 by Eclipse SUMO netconvert Version 1.7.0
<configuration xmlns:xsi="http://www.w3.org/2001/XMLSchema-instance" xsi:noNamespaceSchemaLocation="http://sumo.dlr.de/xsd/netconvertConfiguration.xsd">

    <input>
        <osm-files value="map.osm"/>
    </input>

    <output>
        <output-file value="map.net.xml"/>
    </output>

    <projection>
        <proj.utm value="true"/>
    </projection>

    <report>
        <aggregate-warnings value="5"/>
    </report>

</configuration>
-->

<net version="1.6" junctionCornerDetail="5" limitTurnSpeed="5.50" xmlns:xsi="http://www.w3.org/2001/XMLSchema-instance" xsi:noNamespaceSchemaLocation="http://sumo.dlr.de/xsd/net_file.xsd">

    <location netOffset="-476861.34,-1433329.17" convBoundary="0.00,0.00,4466.23,8363.94" origBoundary="74.786607,12.965518,74.827806,13.041137" projParameter="+proj=utm +zone=43 +ellps=WGS84 +datum=WGS84 +units=m +no_defs"/>

    <type id="highway.bridleway" priority="1" numLanes="1" speed="2.78" allow="pedestrian" oneway="1" width="2.00"/>
    <type id="highway.bus_guideway" priority="1" numLanes="1" speed="27.78" allow="bus" oneway="1"/>
    <type id="highway.cycleway" priority="1" numLanes="1" speed="8.33" allow="bicycle" oneway="0" width="1.00"/>
    <type id="highway.footway" priority="1" numLanes="1" speed="2.78" allow="pedestrian" oneway="1" width="2.00"/>
    <type id="highway.ford" priority="1" numLanes="1" speed="2.78" allow="army" oneway="0"/>
    <type id="highway.living_street" priority="2" numLanes="1" speed="2.78" disallow="tram rail_urban rail rail_electric rail_fast ship" oneway="0"/>
    <type id="highway.motorway" priority="14" numLanes="2" speed="39.44" allow="private emergency authority army vip passenger hov taxi bus coach delivery truck trailer motorcycle evehicle custom1 custom2" oneway="1"/>
    <type id="highway.motorway_link" priority="9" numLanes="1" speed="22.22" allow="private emergency authority army vip passenger hov taxi bus coach delivery truck trailer motorcycle evehicle custom1 custom2" oneway="1"/>
    <type id="highway.path" priority="1" numLanes="1" speed="2.78" allow="pedestrian bicycle" oneway="1" width="2.00"/>
    <type id="highway.pedestrian" priority="1" numLanes="1" speed="2.78" allow="pedestrian" oneway="1" width="2.00"/>
    <type id="highway.primary" priority="12" numLanes="2" speed="27.78" disallow="tram rail_urban rail rail_electric rail_fast ship" oneway="0"/>
    <type id="highway.primary_link" priority="7" numLanes="1" speed="22.22" disallow="tram rail_urban rail rail_electric rail_fast ship" oneway="0"/>
    <type id="highway.raceway" priority="15" numLanes="2" speed="83.33" allow="vip" oneway="0"/>
    <type id="highway.residential" priority="3" numLanes="1" speed="13.89" disallow="tram rail_urban rail rail_electric rail_fast ship" oneway="0"/>
    <type id="highway.secondary" priority="11" numLanes="1" speed="27.78" disallow="tram rail_urban rail rail_electric rail_fast ship" oneway="0"/>
    <type id="highway.secondary_link" priority="6" numLanes="1" speed="22.22" disallow="tram rail_urban rail rail_electric rail_fast ship" oneway="0"/>
    <type id="highway.service" priority="1" numLanes="1" speed="5.56" allow="pedestrian delivery bicycle" oneway="0"/>
    <type id="highway.stairs" priority="1" numLanes="1" speed="1.39" allow="pedestrian" oneway="1" width="2.00"/>
    <type id="highway.step" priority="1" numLanes="1" speed="1.39" allow="pedestrian" oneway="1" width="2.00"/>
    <type id="highway.steps" priority="1" numLanes="1" speed="1.39" allow="pedestrian" oneway="1" width="2.00"/>
    <type id="highway.tertiary" priority="10" numLanes="1" speed="22.22" disallow="tram rail_urban rail rail_electric rail_fast ship" oneway="0"/>
    <type id="highway.tertiary_link" priority="5" numLanes="1" speed="22.22" disallow="tram rail_urban rail rail_electric rail_fast ship" oneway="0"/>
    <type id="highway.track" priority="1" numLanes="1" speed="5.56" allow="pedestrian motorcycle moped bicycle" oneway="0"/>
    <type id="highway.trunk" priority="13" numLanes="2" speed="27.78" disallow="pedestrian bicycle tram rail_urban rail rail_electric rail_fast ship" oneway="0"/>
    <type id="highway.trunk_link" priority="8" numLanes="1" speed="22.22" disallow="pedestrian bicycle tram rail_urban rail rail_electric rail_fast ship" oneway="0"/>
    <type id="highway.unclassified" priority="4" numLanes="1" speed="13.89" disallow="tram rail_urban rail rail_electric rail_fast ship" oneway="0"/>
    <type id="highway.unsurfaced" priority="1" numLanes="1" speed="8.33" disallow="tram rail_urban rail rail_electric rail_fast ship" oneway="0"/>
    <type id="railway.highspeed" priority="21" numLanes="1" speed="69.44" allow="rail_fast" oneway="1"/>
    <type id="railway.light_rail" priority="19" numLanes="1" speed="27.78" allow="rail_urban" oneway="1"/>
    <type id="railway.preserved" priority="16" numLanes="1" speed="27.78" allow="rail" oneway="1"/>
    <type id="railway.rail" priority="20" numLanes="1" speed="44.44" allow="rail" oneway="1"/>
    <type id="railway.subway" priority="18" numLanes="1" speed="27.78" allow="rail_urban" oneway="1"/>
    <type id="railway.tram" priority="17" numLanes="1" speed="13.89" allow="tram" oneway="1"/>

    <edge id=":1692785797_0" function="internal">
        <lane id=":1692785797_0_0" index="0" disallow="pedestrian bicycle tram rail_urban rail rail_electric rail_fast ship" speed="5.99" length="8.03" shape="838.17,4302.25 836.88,4301.34 836.37,4299.86 836.62,4297.81 837.64,4295.18"/>
    </edge>
    <edge id=":1692785797_1" function="internal">
        <lane id=":1692785797_1_0" index="0" disallow="tram rail_urban rail rail_electric rail_fast ship" speed="3.65" length="4.67" shape="838.17,4302.25 837.32,4301.08 837.22,4300.19 837.88,4299.58 839.28,4299.25"/>
    </edge>
    <edge id=":1692785797_2" function="internal">
        <lane id=":1692785797_2_0" index="0" disallow="pedestrian bicycle tram rail_urban rail rail_electric rail_fast ship" speed="27.78" length="9.47" shape="830.69,4302.37 834.76,4293.79"/>
        <lane id=":1692785797_2_1" index="1" disallow="pedestrian bicycle tram rail_urban rail rail_electric rail_fast ship" speed="27.78" length="9.47" shape="833.60,4303.72 837.64,4295.18"/>
    </edge>
    <edge id=":1692785797_4" function="internal">
        <lane id=":1692785797_4_0" index="0" disallow="pedestrian bicycle tram rail_urban rail rail_electric rail_fast ship" speed="6.31" length="7.93" shape="833.60,4303.72 834.93,4301.33 836.32,4299.79 837.77,4299.10 839.28,4299.25"/>
    </edge>
    <edge id=":1705789126_0" function="internal">
        <lane id=":1705789126_0_0" index="0" disallow="tram rail_urban rail rail_electric rail_fast ship" speed="3.65" length="4.67" shape="4464.64,4648.47 4465.57,4647.37 4466.41,4647.06 4467.16,4647.54 4467.82,4648.82"/>
    </edge>
    <edge id=":1866312199_0" function="internal">
        <lane id=":1866312199_0_0" index="0" disallow="tram rail_urban rail rail_electric rail_fast ship" speed="6.58" length="9.19" shape="1092.26,5192.67 1089.81,5193.00 1088.04,5194.06 1086.95,5195.84 1086.54,5198.37"/>
    </edge>
    <edge id=":1866312199_1" function="internal">
        <lane id=":1866312199_1_0" index="0" disallow="tram rail_urban rail rail_electric rail_fast ship" speed="13.89" length="14.46" shape="1092.26,5192.67 1077.80,5192.74"/>
    </edge>
    <edge id=":1866312199_2" function="internal">
        <lane id=":1866312199_2_0" index="0" disallow="tram rail_urban rail rail_electric rail_fast ship" speed="8.03" length="14.14" shape="1092.26,5192.67 1088.44,5192.07 1085.71,5190.40 1084.07,5187.65 1083.52,5183.82"/>
    </edge>
    <edge id=":1866312199_3" function="internal">
        <lane id=":1866312199_3_0" index="0" disallow="tram rail_urban rail rail_electric rail_fast ship" speed="3.65" length="4.67" shape="1092.26,5192.67 1091.07,5191.85 1090.69,5191.05 1091.10,5190.25 1092.31,5189.47"/>
    </edge>
    <edge id=":1866312199_4" function="internal">
        <lane id=":1866312199_4_0" index="0" disallow="tram rail_urban rail rail_electric rail_fast ship" speed="6.54" length="9.04" shape="1086.72,5183.82 1087.07,5186.26 1088.12,5188.02 1089.86,5189.09 1092.31,5189.47"/>
    </edge>
    <edge id=":1866312199_5" function="internal">
        <lane id=":1866312199_5_0" index="0" disallow="tram rail_urban rail rail_electric rail_fast ship" speed="13.89" length="14.55" shape="1086.72,5183.82 1086.54,5198.37"/>
    </edge>
    <edge id=":1866312199_6" function="internal">
        <lane id=":1866312199_6_0" index="0" disallow="tram rail_urban rail rail_electric rail_fast ship" speed="8.10" length="6.02" shape="1086.72,5183.82 1086.16,5187.64 1085.05,5189.49"/>
    </edge>
    <edge id=":1866312199_7" function="internal">
        <lane id=":1866312199_7_0" index="0" disallow="tram rail_urban rail rail_electric rail_fast ship" speed="3.65" length="2.34" shape="1086.72,5183.82 1085.92,5185.02 1085.12,5185.42"/>
    </edge>
    <edge id=":1866312199_16" function="internal">
        <lane id=":1866312199_16_0" index="0" disallow="tram rail_urban rail rail_electric rail_fast ship" speed="8.10" length="8.29" shape="1085.05,5189.49 1084.49,5190.41 1081.71,5192.10 1077.80,5192.74"/>
    </edge>
    <edge id=":1866312199_17" function="internal">
        <lane id=":1866312199_17_0" index="0" disallow="tram rail_urban rail rail_electric rail_fast ship" speed="3.65" length="2.34" shape="1085.12,5185.42 1084.32,5185.02 1083.52,5183.82"/>
    </edge>
    <edge id=":1866312199_8" function="internal">
        <lane id=":1866312199_8_0" index="0" disallow="tram rail_urban rail rail_electric rail_fast ship" speed="6.62" length="9.23" shape="1077.73,5189.54 1080.27,5189.13 1082.07,5188.04 1083.16,5186.27 1083.52,5183.82"/>
    </edge>
    <edge id=":1866312199_9" function="internal">
        <lane id=":1866312199_9_0" index="0" disallow="tram rail_urban rail rail_electric rail_fast ship" speed="13.89" length="14.58" shape="1077.73,5189.54 1092.31,5189.47"/>
    </edge>
    <edge id=":1866312199_10" function="internal">
        <lane id=":1866312199_10_0" index="0" disallow="tram rail_urban rail rail_electric rail_fast ship" speed="7.92" length="14.38" shape="1077.73,5189.54 1081.67,5190.01 1084.45,5191.64 1086.07,5194.43 1086.54,5198.37"/>
    </edge>
    <edge id=":1866312199_11" function="internal">
        <lane id=":1866312199_11_0" index="0" disallow="tram rail_urban rail rail_electric rail_fast ship" speed="3.65" length="4.67" shape="1077.73,5189.54 1078.95,5190.31 1079.37,5191.10 1078.99,5191.91 1077.80,5192.74"/>
    </edge>
    <edge id=":1866312199_12" function="internal">
        <lane id=":1866312199_12_0" index="0" disallow="tram rail_urban rail rail_electric rail_fast ship" speed="6.41" length="9.04" shape="1083.34,5198.28 1083.05,5195.81 1082.03,5194.06 1080.28,5193.03 1077.80,5192.74"/>
    </edge>
    <edge id=":1866312199_13" function="internal">
        <lane id=":1866312199_13_0" index="0" disallow="tram rail_urban rail rail_electric rail_fast ship" speed="13.89" length="14.47" shape="1083.34,5198.28 1083.52,5183.82"/>
    </edge>
    <edge id=":1866312199_14" function="internal">
        <lane id=":1866312199_14_0" index="0" disallow="tram rail_urban rail rail_electric rail_fast ship" speed="8.06" length="5.90" shape="1083.34,5198.28 1083.98,5194.38 1085.01,5192.73"/>
    </edge>
    <edge id=":1866312199_15" function="internal">
        <lane id=":1866312199_15_0" index="0" disallow="tram rail_urban rail rail_electric rail_fast ship" speed="3.65" length="2.34" shape="1083.34,5198.28 1084.17,5197.11 1084.98,5196.73"/>
    </edge>
    <edge id=":1866312199_18" function="internal">
        <lane id=":1866312199_18_0" index="0" disallow="tram rail_urban rail rail_electric rail_fast ship" speed="8.06" length="8.40" shape="1085.01,5192.73 1085.69,5191.61 1088.47,5189.98 1092.31,5189.47"/>
    </edge>
    <edge id=":1866312199_19" function="internal">
        <lane id=":1866312199_19_0" index="0" disallow="tram rail_urban rail rail_electric rail_fast ship" speed="3.65" length="2.34" shape="1084.98,5196.73 1085.77,5197.15 1086.54,5198.37"/>
    </edge>
    <edge id=":1866312200_0" function="internal">
        <lane id=":1866312200_0_0" index="0" disallow="tram rail_urban rail rail_electric rail_fast ship" speed="6.54" length="8.06" shape="1081.87,4834.85 1081.27,4832.77 1080.15,4831.28 1078.52,4830.37 1076.38,4830.05"/>
    </edge>
    <edge id=":1866312200_1" function="internal">
        <lane id=":1866312200_1_0" index="0" disallow="tram rail_urban rail rail_electric rail_fast ship" speed="13.89" length="12.54" shape="1081.87,4834.85 1081.50,4831.50 1081.48,4828.60 1081.87,4825.72 1082.70,4822.46"/>
    </edge>
    <edge id=":1866312200_2" function="internal">
        <lane id=":1866312200_2_0" index="0" allow="pedestrian delivery bicycle" speed="6.85" length="5.42" shape="1081.87,4834.85 1082.24,4832.38 1083.75,4830.09 1083.89,4829.98"/>
    </edge>
    <edge id=":1866312200_3" function="internal">
        <lane id=":1866312200_3_0" index="0" disallow="tram rail_urban rail rail_electric rail_fast ship" speed="3.65" length="2.34" shape="1081.87,4834.85 1082.49,4833.55 1083.22,4833.04"/>
    </edge>
    <edge id=":1866312200_16" function="internal">
        <lane id=":1866312200_16_0" index="0" allow="pedestrian delivery bicycle" speed="6.85" length="5.21" shape="1083.89,4829.98 1085.95,4828.36 1088.41,4827.56"/>
    </edge>
    <edge id=":1866312200_17" function="internal">
        <lane id=":1866312200_17_0" index="0" disallow="tram rail_urban rail rail_electric rail_fast ship" speed="3.65" length="2.34" shape="1083.22,4833.04 1084.07,4833.32 1085.04,4834.39"/>
    </edge>
    <edge id=":1866312200_4" function="internal">
        <lane id=":1866312200_4_0" index="0" allow="pedestrian delivery bicycle" speed="5.10" length="5.41" shape="1088.02,4830.80 1086.53,4831.12 1085.54,4831.83 1085.04,4832.92 1085.04,4834.39"/>
    </edge>
    <edge id=":1866312200_5" function="internal">
        <lane id=":1866312200_5_0" index="0" allow="pedestrian delivery bicycle" speed="9.72" length="11.68" shape="1088.02,4830.80 1084.80,4830.85 1082.21,4830.59 1079.61,4830.24 1076.38,4830.05"/>
    </edge>
    <edge id=":1866312200_6" function="internal">
        <lane id=":1866312200_6_0" index="0" allow="pedestrian delivery bicycle" speed="6.36" length="10.98" shape="1088.02,4830.80 1085.67,4830.05 1083.77,4827.91 1082.67,4825.13 1082.70,4822.46"/>
    </edge>
    <edge id=":1866312200_7" function="internal">
        <lane id=":1866312200_7_0" index="0" allow="pedestrian delivery bicycle" speed="3.67" length="4.76" shape="1088.02,4830.80 1086.90,4829.84 1086.60,4828.98 1087.10,4828.22 1088.41,4827.56"/>
    </edge>
    <edge id=":1866312200_8" function="internal">
        <lane id=":1866312200_8_0" index="0" allow="pedestrian delivery bicycle" speed="5.00" length="6.28" shape="1085.77,4823.37 1085.43,4825.32 1085.76,4826.67 1086.75,4827.42 1088.41,4827.56"/>
    </edge>
    <edge id=":1866312200_9" function="internal">
        <lane id=":1866312200_9_0" index="0" disallow="tram rail_urban rail rail_electric rail_fast ship" speed="13.89" length="11.17" shape="1085.77,4823.37 1084.95,4826.42 1084.60,4828.82 1084.65,4831.25 1085.04,4834.39"/>
    </edge>
    <edge id=":1866312200_10" function="internal">
        <lane id=":1866312200_10_0" index="0" disallow="tram rail_urban rail rail_electric rail_fast ship" speed="8.43" length="4.96" shape="1085.77,4823.37 1084.43,4826.32 1083.23,4827.57"/>
    </edge>
    <edge id=":1866312200_11" function="internal">
        <lane id=":1866312200_11_0" index="0" disallow="tram rail_urban rail rail_electric rail_fast ship" speed="3.65" length="2.34" shape="1085.77,4823.37 1084.66,4824.30 1083.78,4824.45"/>
    </edge>
    <edge id=":1866312200_18" function="internal">
        <lane id=":1866312200_18_0" index="0" disallow="tram rail_urban rail rail_electric rail_fast ship" speed="8.43" length="7.51" shape="1083.23,4827.57 1082.42,4828.42 1079.73,4829.66 1076.38,4830.05"/>
    </edge>
    <edge id=":1866312200_19" function="internal">
        <lane id=":1866312200_19_0" index="0" disallow="tram rail_urban rail rail_electric rail_fast ship" speed="3.65" length="2.34" shape="1083.78,4824.45 1083.12,4823.84 1082.70,4822.46"/>
    </edge>
    <edge id=":1866312200_12" function="internal">
        <lane id=":1866312200_12_0" index="0" disallow="tram rail_urban rail rail_electric rail_fast ship" speed="6.98" length="8.30" shape="1076.41,4826.85 1078.67,4826.60 1080.47,4825.78 1081.81,4824.40 1082.70,4822.46"/>
    </edge>
    <edge id=":1866312200_13" function="internal">
        <lane id=":1866312200_13_0" index="0" allow="pedestrian delivery bicycle" speed="9.72" length="12.04" shape="1076.41,4826.85 1079.70,4827.04 1082.42,4827.37 1085.14,4827.63 1088.41,4827.56"/>
    </edge>
    <edge id=":1866312200_14" function="internal">
        <lane id=":1866312200_14_0" index="0" disallow="tram rail_urban rail rail_electric rail_fast ship" speed="8.04" length="12.66" shape="1076.41,4826.85 1079.78,4827.35 1082.34,4828.77 1084.09,4831.12 1085.04,4834.39"/>
    </edge>
    <edge id=":1866312200_15" function="internal">
        <lane id=":1866312200_15_0" index="0" disallow="tram rail_urban rail rail_electric rail_fast ship" speed="3.65" length="4.67" shape="1076.41,4826.85 1077.61,4827.67 1078.00,4828.47 1077.59,4829.27 1076.38,4830.05"/>
    </edge>
    <edge id=":1866312204_0" function="internal">
        <lane id=":1866312204_0_0" index="0" disallow="tram rail_urban rail rail_electric rail_fast ship" speed="13.89" length="14.63" shape="975.44,4530.04 963.07,4522.22"/>
    </edge>
    <edge id=":1866312204_1" function="internal">
        <lane id=":1866312204_1_0" index="0" disallow="tram rail_urban rail rail_electric rail_fast ship" speed="9.36" length="5.45" shape="975.44,4530.04 972.87,4527.72 971.96,4525.95"/>
    </edge>
    <edge id=":1866312204_2" function="internal">
        <lane id=":1866312204_2_0" index="0" disallow="tram rail_urban rail rail_electric rail_fast ship" speed="3.65" length="2.34" shape="975.44,4530.04 974.86,4528.72 974.96,4527.83"/>
    </edge>
    <edge id=":1866312204_9" function="internal">
        <lane id=":1866312204_9_0" index="0" disallow="tram rail_urban rail rail_electric rail_fast ship" speed="9.36" length="9.30" shape="971.96,4525.95 971.35,4524.76 970.89,4521.14 971.48,4516.87"/>
    </edge>
    <edge id=":1866312204_10" function="internal">
        <lane id=":1866312204_10_0" index="0" disallow="tram rail_urban rail rail_electric rail_fast ship" speed="3.65" length="2.34" shape="974.96,4527.83 975.73,4527.38 977.17,4527.35"/>
    </edge>
    <edge id=":1866312204_3" function="internal">
        <lane id=":1866312204_3_0" index="0" disallow="tram rail_urban rail rail_electric rail_fast ship" speed="8.00" length="10.55" shape="974.53,4517.86 974.08,4520.98 974.37,4523.60 975.40,4525.73 977.17,4527.35"/>
    </edge>
    <edge id=":1866312204_4" function="internal">
        <lane id=":1866312204_4_0" index="0" disallow="tram rail_urban rail rail_electric rail_fast ship" speed="7.49" length="15.32" shape="974.53,4517.86 972.90,4521.88 970.45,4523.95 967.18,4524.06 963.07,4522.22"/>
    </edge>
    <edge id=":1866312204_5" function="internal">
        <lane id=":1866312204_5_0" index="0" disallow="tram rail_urban rail rail_electric rail_fast ship" speed="3.65" length="4.69" shape="974.53,4517.86 973.39,4518.76 972.51,4518.89 971.87,4518.26 971.48,4516.87"/>
    </edge>
    <edge id=":1866312204_6" function="internal">
        <lane id=":1866312204_6_0" index="0" disallow="tram rail_urban rail rail_electric rail_fast ship" speed="5.90" length="9.01" shape="964.77,4519.50 967.16,4520.57 969.08,4520.49 970.52,4519.26 971.48,4516.87"/>
    </edge>
    <edge id=":1866312204_7" function="internal">
        <lane id=":1866312204_7_0" index="0" disallow="tram rail_urban rail rail_electric rail_fast ship" speed="13.89" length="14.68" shape="964.77,4519.50 977.17,4527.35"/>
    </edge>
    <edge id=":1866312204_8" function="internal">
        <lane id=":1866312204_8_0" index="0" disallow="tram rail_urban rail rail_electric rail_fast ship" speed="3.65" length="2.34" shape="964.77,4519.50 965.36,4520.82 965.28,4521.71"/>
    </edge>
    <edge id=":1866312204_11" function="internal">
        <lane id=":1866312204_11_0" index="0" disallow="tram rail_urban rail rail_electric rail_fast ship" speed="3.65" length="2.34" shape="965.28,4521.71 964.51,4522.18 963.07,4522.22"/>
    </edge>
    <edge id=":1866312210_0" function="internal">
        <lane id=":1866312210_0_0" index="0" disallow="tram rail_urban rail rail_electric rail_fast ship" speed="13.89" length="13.74" shape="1119.17,4641.46 1114.30,4628.61"/>
    </edge>
    <edge id=":1866312210_1" function="internal">
        <lane id=":1866312210_1_0" index="0" disallow="tram rail_urban rail rail_electric rail_fast ship" speed="8.91" length="4.53" shape="1119.17,4641.46 1118.77,4638.63 1119.19,4637.01"/>
    </edge>
    <edge id=":1866312210_2" function="internal">
        <lane id=":1866312210_2_0" index="0" disallow="tram rail_urban rail rail_electric rail_fast ship" speed="3.65" length="2.34" shape="1119.17,4641.46 1119.55,4640.07 1120.18,4639.44"/>
    </edge>
    <edge id=":1866312210_9" function="internal">
        <lane id=":1866312210_9_0" index="0" disallow="tram rail_urban rail rail_electric rail_fast ship" speed="8.91" length="8.64" shape="1119.19,4637.01 1119.50,4635.82 1121.34,4633.02 1124.30,4630.24"/>
    </edge>
    <edge id=":1866312210_10" function="internal">
        <lane id=":1866312210_10_0" index="0" disallow="tram rail_urban rail rail_electric rail_fast ship" speed="3.65" length="2.34" shape="1120.18,4639.44 1121.06,4639.56 1122.20,4640.44"/>
    </edge>
    <edge id=":1866312210_3" function="internal">
        <lane id=":1866312210_3_0" index="0" disallow="tram rail_urban rail rail_electric rail_fast ship" speed="7.20" length="8.34" shape="1125.51,4633.36 1123.62,4635.13 1122.43,4636.90 1121.96,4638.67 1122.20,4640.44"/>
    </edge>
    <edge id=":1866312210_4" function="internal">
        <lane id=":1866312210_4_0" index="0" disallow="tram rail_urban rail rail_electric rail_fast ship" speed="7.50" length="14.83" shape="1125.51,4633.36 1122.22,4635.10 1119.26,4634.89 1116.61,4632.73 1114.30,4628.61"/>
    </edge>
    <edge id=":1866312210_5" function="internal">
        <lane id=":1866312210_5_0" index="0" disallow="tram rail_urban rail rail_electric rail_fast ship" speed="3.71" length="4.89" shape="1125.51,4633.36 1124.04,4633.04 1123.34,4632.41 1123.43,4631.48 1124.30,4630.24"/>
    </edge>
    <edge id=":1866312210_6" function="internal">
        <lane id=":1866312210_6_0" index="0" disallow="tram rail_urban rail rail_electric rail_fast ship" speed="6.07" length="9.29" shape="1117.24,4627.37 1118.69,4629.92 1120.35,4631.24 1122.22,4631.35 1124.30,4630.24"/>
    </edge>
    <edge id=":1866312210_7" function="internal">
        <lane id=":1866312210_7_0" index="0" disallow="tram rail_urban rail rail_electric rail_fast ship" speed="13.89" length="13.99" shape="1117.24,4627.37 1122.20,4640.44"/>
    </edge>
    <edge id=":1866312210_8" function="internal">
        <lane id=":1866312210_8_0" index="0" disallow="tram rail_urban rail rail_electric rail_fast ship" speed="3.65" length="2.34" shape="1117.24,4627.37 1116.98,4628.78 1116.39,4629.46"/>
    </edge>
    <edge id=":1866312210_11" function="internal">
        <lane id=":1866312210_11_0" index="0" disallow="tram rail_urban rail rail_electric rail_fast ship" speed="3.65" length="2.34" shape="1116.39,4629.46 1115.50,4629.41 1114.30,4628.61"/>
    </edge>
    <edge id=":1866312211_0" function="internal">
        <lane id=":1866312211_0_0" index="0" disallow="tram rail_urban rail rail_electric rail_fast ship" speed="6.51" length="9.04" shape="818.28,5203.09 817.90,5200.64 816.82,5198.90 815.06,5197.87 812.60,5197.56"/>
    </edge>
    <edge id=":1866312211_1" function="internal">
        <lane id=":1866312211_1_0" index="0" disallow="tram rail_urban rail rail_electric rail_fast ship" speed="13.89" length="14.41" shape="818.28,5203.09 818.07,5188.68"/>
    </edge>
    <edge id=":1866312211_2" function="internal">
        <lane id=":1866312211_2_0" index="0" disallow="tram rail_urban rail rail_electric rail_fast ship" speed="8.00" length="14.20" shape="818.28,5203.09 818.78,5199.23 820.39,5196.46 823.12,5194.77 826.97,5194.18"/>
    </edge>
    <edge id=":1866312211_3" function="internal">
        <lane id=":1866312211_3_0" index="0" disallow="tram rail_urban rail rail_electric rail_fast ship" speed="3.65" length="4.67" shape="818.28,5203.09 819.06,5201.88 819.86,5201.47 820.66,5201.86 821.48,5203.05"/>
    </edge>
    <edge id=":1866312211_4" function="internal">
        <lane id=":1866312211_4_0" index="0" disallow="tram rail_urban rail rail_electric rail_fast ship" speed="6.50" length="9.03" shape="827.01,5197.38 824.56,5197.76 822.82,5198.83 821.80,5200.59 821.48,5203.05"/>
    </edge>
    <edge id=":1866312211_5" function="internal">
        <lane id=":1866312211_5_0" index="0" disallow="tram rail_urban rail rail_electric rail_fast ship" speed="13.89" length="14.41" shape="827.01,5197.38 812.60,5197.56"/>
    </edge>
    <edge id=":1866312211_6" function="internal">
        <lane id=":1866312211_6_0" index="0" disallow="tram rail_urban rail rail_electric rail_fast ship" speed="8.02" length="5.93" shape="827.01,5197.38 823.15,5196.87 821.39,5195.85"/>
    </edge>
    <edge id=":1866312211_7" function="internal">
        <lane id=":1866312211_7_0" index="0" disallow="tram rail_urban rail rail_electric rail_fast ship" speed="3.65" length="2.34" shape="827.01,5197.38 825.80,5196.59 825.39,5195.80"/>
    </edge>
    <edge id=":1866312211_16" function="internal">
        <lane id=":1866312211_16_0" index="0" disallow="tram rail_urban rail rail_electric rail_fast ship" speed="8.02" length="8.28" shape="821.39,5195.85 820.37,5195.26 818.68,5192.52 818.07,5188.68"/>
    </edge>
    <edge id=":1866312211_17" function="internal">
        <lane id=":1866312211_17_0" index="0" disallow="tram rail_urban rail rail_electric rail_fast ship" speed="3.65" length="2.34" shape="825.39,5195.80 825.78,5194.99 826.97,5194.18"/>
    </edge>
    <edge id=":1866312211_8" function="internal">
        <lane id=":1866312211_8_0" index="0" disallow="tram rail_urban rail rail_electric rail_fast ship" speed="6.53" length="9.06" shape="821.27,5188.63 821.66,5191.08 822.74,5192.83 824.51,5193.86 826.97,5194.18"/>
    </edge>
    <edge id=":1866312211_9" function="internal">
        <lane id=":1866312211_9_0" index="0" disallow="tram rail_urban rail rail_electric rail_fast ship" speed="13.89" length="14.42" shape="821.27,5188.63 821.48,5203.05"/>
    </edge>
    <edge id=":1866312211_10" function="internal">
        <lane id=":1866312211_10_0" index="0" disallow="tram rail_urban rail rail_electric rail_fast ship" speed="8.00" length="14.20" shape="821.27,5188.63 820.78,5192.49 819.17,5195.27 816.44,5196.96 812.60,5197.56"/>
    </edge>
    <edge id=":1866312211_11" function="internal">
        <lane id=":1866312211_11_0" index="0" disallow="tram rail_urban rail rail_electric rail_fast ship" speed="3.65" length="4.67" shape="821.27,5188.63 820.49,5189.84 819.70,5190.26 818.89,5189.87 818.07,5188.68"/>
    </edge>
    <edge id=":1866312211_12" function="internal">
        <lane id=":1866312211_12_0" index="0" disallow="tram rail_urban rail rail_electric rail_fast ship" speed="6.50" length="9.03" shape="812.56,5194.36 815.00,5193.97 816.74,5192.90 817.76,5191.14 818.07,5188.68"/>
    </edge>
    <edge id=":1866312211_13" function="internal">
        <lane id=":1866312211_13_0" index="0" disallow="tram rail_urban rail rail_electric rail_fast ship" speed="13.89" length="14.42" shape="812.56,5194.36 826.97,5194.18"/>
    </edge>
    <edge id=":1866312211_14" function="internal">
        <lane id=":1866312211_14_0" index="0" disallow="tram rail_urban rail rail_electric rail_fast ship" speed="8.00" length="5.94" shape="812.56,5194.36 816.42,5194.86 818.19,5195.89"/>
    </edge>
    <edge id=":1866312211_15" function="internal">
        <lane id=":1866312211_15_0" index="0" disallow="tram rail_urban rail rail_electric rail_fast ship" speed="3.65" length="2.34" shape="812.56,5194.36 813.77,5195.14 814.18,5195.94"/>
    </edge>
    <edge id=":1866312211_18" function="internal">
        <lane id=":1866312211_18_0" index="0" disallow="tram rail_urban rail rail_electric rail_fast ship" speed="8.00" length="8.26" shape="818.19,5195.89 819.19,5196.47 820.88,5199.20 821.48,5203.05"/>
    </edge>
    <edge id=":1866312211_19" function="internal">
        <lane id=":1866312211_19_0" index="0" disallow="tram rail_urban rail rail_electric rail_fast ship" speed="3.65" length="2.34" shape="814.18,5195.94 813.79,5196.74 812.60,5197.56"/>
    </edge>
    <edge id=":1866312220_0" function="internal">
        <lane id=":1866312220_0_0" index="0" disallow="tram rail_urban rail rail_electric rail_fast ship" speed="13.89" length="14.12" shape="950.82,4514.58 938.70,4507.34"/>
    </edge>
    <edge id=":1866312220_1" function="internal">
        <lane id=":1866312220_1_0" index="0" disallow="tram rail_urban rail rail_electric rail_fast ship" speed="7.72" length="5.82" shape="950.82,4514.58 947.62,4511.88 946.94,4510.40"/>
    </edge>
    <edge id=":1866312220_2" function="internal">
        <lane id=":1866312220_2_0" index="0" disallow="tram rail_urban rail rail_electric rail_fast ship" speed="3.65" length="2.34" shape="950.82,4514.58 950.23,4513.27 950.31,4512.38"/>
    </edge>
    <edge id=":1866312220_9" function="internal">