<?xml version="1.0" encoding="UTF-8"?>
<!-- generated on 2020-10-30 15:52:35.437505 by randomTrips.py UNKNOWN
  options: -n map.net.xml -r map.rou.xml -e 99 -l
-->
<routes xmlns:xsi="http://www.w3.org/2001/XMLSchema-instance" xsi:noNamespaceSchemaLocation="http://sumo.dlr.de/xsd/routes_file.xsd">
    <trip id="0" depart="0.00" from="221202411" to="-176065876#4"/>
    <trip id="1" depart="1.00" from="-447686391" to="-239322874#1"/>
    <trip id="2" depart="2.00" from="332925050#0" to="239322886#0"/>
    <trip id="3" depart="3.00" from="548937827#0" to="-176069414#1"/>
    <trip id="4" depart="4.00" from="-859182554#0" to="-176065877#0"/>
    <trip id="5" depart="5.00" from="-239322874#3" to="176068812"/>
    <trip id="6" depart="6.00" from="-176065877#0" to="-221202411"/>
    <trip id="7" depart="7.00" from="221202411" to="219225823#0"/>
    <trip id="8" depart="8.00" from="-239322874#4" to="219225823#1"/>
    <trip id="9" depart="9.00" from="447686382#3" to="-176064253#20"/>
    <trip id="10" depart="10.00" from="447686382#2" to="239322886#2"/>
    <trip id="11" depart="11.00" from="-545225411" to="-221202411"/>
    <trip id="12" depart="12.00" from="859182553#1" to="-545225411"/>
    <trip id="13" depart="13.00" from="-176069415#0" to="-219225822#1"/>
    <trip id="14" depart="14.00" from="447686964" to="219225827#0"/>
    <trip id="15" depart="15.00" from="447686382#2" to="332925052#1"/>
    <trip id="16" depart="16.00" from="176069361#2" to="859182555#1"/>
    <trip id="17" depart="17.00" from="-762038776" to="219225823#0"/>
    <trip id="18" depart="18.00" from="447686389" to="219225827#0"/>
    <trip id="19" depart="19.00" from="458212676" to="219225823#1"/>
    <trip id="20" depart="20.00" from="239322886#0" to="-176068096#0"/>
    <trip id="21" depart="21.00" from="-239322874#6" to="-447686393"/>
    <trip id="22" depart="22.00" from="-176069079" to="-239322874#5"/>
    <trip id="23" depart="23.00" from="-176071087" to="-447686390"/>
    <trip id="24" depart="24.00" from="221202411" to="-762038778#2"/>
    <trip id="25" depart="25.00" from="-677939260" to="-239320948#0"/>
    <trip id="26" depart="26.00" from="-447686387" to="801453911#4"/>
    <trip id="27" depart="27.00" from="221202411" to="219225827#0"/>
    <trip id="28" depart="28.00" from="-219225827#0" to="332925052#1"/>
    <trip id="29" depart="29.00" from="-219225823#1" to="-859182553#0"/>
    <trip id="30" depart="30.00" from="863259090" to="239320948#1"/>
    <trip id="31" depart="31.00" from="219225823#0" to="239322886#1"/>
    <trip id="32" depart="32.00" from="447686393" to="447686391"/>
    <trip id="33" depart="33.00" from="-239322874#7" to="-176065877#1"/>
    <trip id="34" depart="34.00" from="-458212665" to="-447686386"/>
    <trip id="35" depart="35.00" from="-239322874#0" to="801453911#4"/>
    <trip id="36" depart="36.00" from="458212676" to="-458212676"/>
    <trip id="37" depart="37.00" from="239320947#0" to="-859182554#0"/>
    <trip id="38" depart="38.00" from="762038778#2" to="176065877#0"/>
    <trip id="39" depart="39.00" from="-447686387" to="-447682431"/>
    <trip id="40" depart="40.00" from="219225823#0" to="-447686384"/>
    <trip id="41" depart="41.00" from="219225827#0" to="762038778#3"/>
    <trip id="42" depart="42.00" from="-762038778#3" to="-239322874#0"/>
    <trip id="43" depart="43.00" from="863259090" to="176068915"/>
    <trip id="44" depart="44.00" from="-176069414#1" to="-176068096#0"/>
    <trip id="45" depart="45.00" from="-219225823#0" to="219225827#1"/>
    <trip id="46" depart="46.00" from="332925052#2" to="-863259090"/>
    <trip id="47" depart="47.00" from="-176068328" to="-859182553#1"/>
    <trip id="48" depart="48.00" from="863259090" to="176071087"/>
    <trip id="49" depart="49.00" from="859182555#0" to="677939256#0"/>
    <trip id="50" depart="50.00" from="-176064253#22" to="332925051#0"/>
    <trip id="51" depart="51.00" from="239322874#4" to="219225822#0"/>
    <trip id="52" depart="52.00" from="-447686387" to="239320948#1"/>
    <trip id="53" depart="53.00" from="-219225823#0" to="176064253#19"/>
    <trip id="54" depart="54.00" from="-863259098" to="859182553#1"/>
    <trip id="55" depart="55.00" from="458212676" to="-447686385#0"/>
    <trip id="56" depart="56.00" from="176068096#0" to="-221202411"/>
    <trip id="57" depart="57.00" from="762038778#1" to="677939260"/>
    <trip id="58" depart="58.00" from="-458212665" to="239320948#1"/>
    <trip id="59" depart="59.00" from="221202411" to="-219225827#1"/>
    <trip id="60" depart="60.00" from="332925052#0" to="219225822#1"/>
    <trip id="61" depart="61.00" from="332925052#0" to="176071087"/>
    <trip id="62" depart="62.00" from="-176064253#12" to="-458212676"/>
    <trip id="63" depart="63.00" from="-176065876#2" to="801453911#4"/>
    <trip id="64" depart="64.00" from="458212676" to="458212665"/>
    <trip id="65" depart="65.00" from="-458212665" to="-176068326"/>
    <trip id="66" depart="66.00" from="458212676" to="859182553#1"/>
    <trip id="67" depart="67.00" from="-176069361#5" to="176068326"/>
    <trip id="68" depart="68.00" from="-176068431#0" to="447686386"/>
    <trip id="69" depart="69.00" from="332925052#0" to="-219225827#0"/>
    <trip id="70" depart="70.00" from="176064253#5" to="219225823#0"/>
    <trip id="71" depart="71.00" from="-447686387" to="677939260"/>
    <trip id="72" depart="72.00" from="-859182554#1" to="-239320948#1"/>
    <trip id="73" depart="73.00" from="176069361#7" to="332925052#1"/>
    <trip id="74" depart="74.00" from="-239320947#1" to="-458212676"/>
    <trip id="75" depart="75.00" from="863259090" to="239322874#10"/>
    <trip id="76" depart="76.00" from="-863259081#1" to="176069361#5"/>
    <trip id="77" depart="77.00" from="-219225823#0" to="-239322874#2"/>
    <trip id="78" depart="78.00" from="-458212665" to="219225823#1"/>
    <trip id="79" depart="79.00" from="-239322874#9" to="-239322874#1"/>
    <trip id="80" depart="80.00" from="-176068628#1" to="239320947#1"/>
    <trip id="81" depart="81.00" from="-239322874#7" to="801453911#0"/>
    <trip id="82" depart="82.00" from="458212676" to="-176068812"/>
    <trip id="83" depart="83.00" from="-332925051#2" to="239322886#0"/>
    <trip id="84" depart="84.00" from="-239322874#1" to="-219225827#0"/>
    <trip id="85" depart="85.00" from="801453911#3" to="219225823#1"/>
    <trip id="86" depart="86.00" from="176064253#23" to="447686393"/>
    <trip id="87" depart="87.00" from="447686382#2" to="-221202411"/>
    <trip id="88" depart="88.00" from="-176071087" to="176064253#10"/>
    <trip id="89" depart="89.00" from="-859182554#1" to="176065877#2"/>
    <trip id="90" depart="90.00" from="332925050#0" to="239322886#0"/>
    <trip id="91" depart="91.00" from="859182556" to="-219225823#0"/>
    <trip id="92" depart="92.00" from="-859182553#1" to="-548937827#0"/>
    <trip id="93" depart="93.00" from="458212676" to="-447686382#0"/>
    <trip id="94" depart="94.00" from="-219225827#1" to="176064253#4"/>
    <trip id="95" depart="95.00" from="-859182554#0" to="-447686390"/>
    <trip id="96" depart="96.00" from="-447686382#2" to="801453911#4"/>
    <trip id="97" depart="97.00" from="-863259081#1" to="677939256#0"/>
    <trip id="98" depart="98.00" from="219225822#0" to="-176068096#0"/>
</routes>
